
     RDKit          3D

 40 42  0  0  0  0  0  0  0  0999 V2000
  -23.6050  -20.1550  -18.3840 O   0  0  0  0  0  0  0  0  0  0  0  0
  -23.5740  -18.9250  -18.1660 C   0  0  0  0  0  0  0  0  0  0  0  0
  -22.4630  -18.3040  -17.4070 C   0  0  0  0  0  0  0  0  0  0  0  0
  -21.5010  -19.0950  -16.7740 C   0  0  0  0  0  0  0  0  0  0  0  0
  -20.5310  -18.5010  -15.9690 C   0  0  0  0  0  0  0  0  0  0  0  0
  -20.5220  -17.1140  -15.8120 C   0  0  0  0  0  0  0  0  0  0  0  0
  -19.6090  -16.4760  -15.0440 O   0  0  0  0  0  0  0  0  0  0  0  0
  -21.4760  -16.3000  -16.4560 C   0  0  0  0  0  0  0  0  0  0  0  0
  -22.4470  -16.9070  -17.2590 C   0  0  0  0  0  0  0  0  0  0  0  0
  -24.5630  -18.0090  -18.6000 N   0  0  0  0  0  0  0  0  0  0  0  0
  -25.7620  -18.3500  -19.3060 C   0  0  0  0  0  0  0  0  0  0  0  0
  -25.7430  -19.2360  -20.3930 C   0  0  0  0  0  0  0  0  0  0  0  0
  -26.9640  -19.6960  -20.9570 C   0  0  0  0  0  0  0  0  0  0  0  0
  -28.1540  -19.2290  -20.4310 C   0  0  0  0  0  0  0  0  0  0  0  0
  -29.3170  -19.4550  -21.0350 O   0  0  0  0  0  0  0  0  0  0  0  0
  -28.1860  -18.3220  -19.3460 C   0  0  0  0  0  0  0  0  0  0  0  0
  -26.9950  -17.8770  -18.8000 C   0  0  0  0  0  0  0  0  0  0  0  0
  -26.9580  -20.7860  -21.9230 C   0  0  0  0  0  0  0  0  0  0  0  0
  -28.1250  -21.5270  -22.1020 N   0  0  0  0  0  0  0  0  0  0  0  0
  -28.1080  -22.5220  -23.0150 C   0  0  0  0  0  0  0  0  0  0  0  0
  -27.0360  -22.8200  -23.8030 C   0  0  0  0  0  0  0  0  0  0  0  0
  -25.9040  -22.0610  -23.5840 C   0  0  0  0  0  0  0  0  0  0  0  0
  -25.8110  -21.0940  -22.6070 C   0  0  0  0  0  0  0  0  0  0  0  0
  -24.8250  -22.1210  -24.5490 C   0  0  0  0  0  0  0  0  0  0  0  0
  -25.0300  -22.0680  -25.7590 O   0  0  0  0  0  0  0  0  0  0  0  0
  -23.5530  -22.2150  -24.1000 O   0  0  0  0  0  0  0  0  0  0  0  0
  -21.5093  -20.1864  -16.9110 H   0  0  0  0  0  0  0  0  0  0  0  0
  -19.7776  -19.1208  -15.4608 H   0  0  0  0  0  0  0  0  0  0  0  0
  -19.6365  -15.4901  -14.9583 H   0  0  0  0  0  0  0  0  0  0  0  0
  -21.4570  -15.2075  -16.3293 H   0  0  0  0  0  0  0  0  0  0  0  0
  -23.1981  -16.2906  -17.7747 H   0  0  0  0  0  0  0  0  0  0  0  0
  -24.4070  -17.0127  -18.3902 H   0  0  0  0  0  0  0  0  0  0  0  0
  -24.7829  -19.5751  -20.8092 H   0  0  0  0  0  0  0  0  0  0  0  0
  -30.1560  -19.1101  -20.6385 H   0  0  0  0  0  0  0  0  0  0  0  0
  -29.1476  -17.9741  -18.9406 H   0  0  0  0  0  0  0  0  0  0  0  0
  -27.0072  -17.1541  -17.9710 H   0  0  0  0  0  0  0  0  0  0  0  0
  -29.0169  -23.1308  -23.1302 H   0  0  0  0  0  0  0  0  0  0  0  0
  -27.0709  -23.6137  -24.5638 H   0  0  0  0  0  0  0  0  0  0  0  0
  -24.8580  -20.5912  -22.3857 H   0  0  0  0  0  0  0  0  0  0  0  0
  -22.8025  -22.2571  -24.7443 H   0  0  0  0  0  0  0  0  0  0  0  0
  2  1  2  0
  3  2  1  0
  4  3  2  0
  5  4  1  0
  6  5  2  0
  7  6  1  0
  8  6  1  0
  9  3  1  0
  9  8  2  0
 10  2  1  0
 11 10  1  0
 12 11  2  0
 13 12  1  0
 14 13  2  0
 15 14  1  0
 16 14  1  0
 17 16  2  0
 17 11  1  0
 18 13  1  0
 19 18  2  0
 20 19  1  0
 21 20  2  0
 22 21  1  0
 23 22  2  0
 23 18  1  0
 24 22  1  0
 25 24  2  0
 26 24  1  0
  4 27  1  0
  5 28  1  0
  7 29  1  0
  8 30  1  0
  9 31  1  0
 10 32  1  0
 12 33  1  0
 15 34  1  0
 16 35  1  0
 17 36  1  0
 20 37  1  0
 21 38  1  0
 23 39  1  0
 26 40  1  0
M  END
